 optaincs10                SWAT+ May 25 2023       MODULAR Rev 2023.60.5.6                                
                                        zmx       usle_k       sumfc       sumul      usle_p     usle_ls        esco        epco     cn3_swf       perco     latq_co   tiledrain 
 sname           hydgrp                 (mm)                    (mm)        (mm)                                                                                     0=notile;1=tile;
Sea_dep_thin    D                   150.0000      0.0000     37.5000     63.5745      1.0000      3.9565      0.9500      1.0000      0.9500      0.1000      0.9000           1
Sea_dep_thin    D                   150.0000      0.0000     37.5000     63.5745      1.0000      5.0581      0.9500      1.0000      0.9500      0.1000      0.9000           1
Sea_dep_thin    D                   150.0000      0.0000     37.5000     63.5745      1.0000      2.2848      0.9500      1.0000      0.9500      0.1000      0.9000           1
LVcm-sl         C                  1000.0000      0.0000    123.0000    274.9583      1.0000      6.4840      0.9500      1.0000      0.9500      0.1000      0.9000           1
CMeu-sl         D                  1000.0000      0.0000    107.0000    150.6253      1.0000      2.6071      0.9500      1.0000      0.9500      0.1000      0.9000           1
Sea_dep_thick   C                   800.0000      0.0000    167.5000    326.1500      1.0000      0.6715      0.9500      1.0000      0.9500      0.1000      0.2000           1
CMeu-sl         D                  1000.0000      0.0000    107.0000    150.6253      1.0000      4.5656      0.9500      1.0000      0.9500      0.1000      0.9000           1
STrt-sl         D                  1000.0000      0.0000    153.5000    202.5774      1.0000      1.1211      0.9500      1.0000      0.9500      0.1000      0.0100           1
STlv-sl         D                  1000.0000      0.0000    134.5000    185.8970      1.0000      1.1447      0.9500      1.0000      0.9500      0.1000      0.0100           1
STlv-sl         D                  1000.0000      0.0000    134.5000    185.8970      0.7000      0.7344      0.9500      1.0000      0.9500      0.1000      0.0100           1
STlv-sl         D                  1000.0000      0.0000    134.5000    185.8970      0.7000      0.4732      0.9500      1.0000      0.9500      0.1000      0.0100           1
STlv-sl         D                  1000.0000      0.0000    134.5000    185.8970      0.7000      1.1254      0.9500      1.0000      0.9500      0.1000      0.0100           1
STlv-sl         D                  1000.0000      0.0000    134.5000    185.8970      0.7000      0.8264      0.9500      1.0000      0.9500      0.1000      0.0100           1
STlv-sl         D                  1000.0000      0.0000    134.5000    185.8970      0.7000      0.1678      0.9500      1.0000      0.9500      0.1000      0.0100           1
Sea_dep_thick   C                   800.0000      0.0000    167.5000    326.1500      1.0000      1.3181      0.9500      1.0000      0.9500      0.1000      0.9000           1
Sea_dep_thick   C                   800.0000      0.0000    167.5000    326.1500      1.0000      0.6215      0.9500      1.0000      0.9500      0.1000      0.2000           1
Sea_dep_thick   C                   800.0000      0.0000    167.5000    326.1500      1.0000      0.4186      0.9500      1.0000      0.9500      0.1000      0.2000           1
LVcm-sl         C                  1000.0000      0.0000    123.0000    274.9583      1.0000      0.8653      0.9500      1.0000      0.9500      0.1000      0.9000           1
STlv-sl         D                  1000.0000      0.0000    134.5000    185.8970      1.0000      1.2202      0.9500      1.0000      0.9500      0.1000      0.9000           1
STrt-sl         D                  1000.0000      0.0000    153.5000    202.5774      1.0000      0.7454      0.9500      1.0000      0.9500      0.1000      0.9000           1
Sea_dep_thick   C                   800.0000      0.0000    167.5000    326.1500      1.0000      1.3831      0.9500      1.0000      0.9500      0.1000      0.9000           1
Sea_dep_thick   C                   800.0000      0.0000    167.5000    326.1500      1.0000      1.6672      0.9500      1.0000      0.9500      0.1000      0.9000           1
STlv-sl         D                  1000.0000      0.0000    134.5000    185.8970      1.0000      1.0324      0.9500      1.0000      0.9500      0.1000      0.9000           1
Sea_dep_thick   C                   800.0000      0.0000    167.5000    326.1500      1.0000      1.0003      0.9500      1.0000      0.9500      0.1000      0.9000           1
STlv-sl         D                  1000.0000      0.0000    134.5000    185.8970      1.0000      0.6065      0.9500      1.0000      0.9500      0.1000      0.9000           1
Sea_dep_thick   C                   800.0000      0.0000    167.5000    326.1500      1.0000      0.8799      0.9500      1.0000      0.9500      0.1000      0.9000           1
STlv-sl         D                  1000.0000      0.0000    134.5000    185.8970      1.0000      1.2362      0.9500      1.0000      0.9500      0.1000      0.9000           1
STlv-sl         D                  1000.0000      0.0000    134.5000    185.8970      1.0000      2.3227      0.9500      1.0000      0.9500      0.1000      0.9000           1
Sea_dep_thick   C                   800.0000      0.0000    167.5000    326.1500      1.0000      1.3771      0.9500      1.0000      0.9500      0.1000      0.9000           1
Sea_dep_thick   C                   800.0000      0.0000    167.5000    326.1500      1.0000      3.5445      0.9500      1.0000      0.9500      0.1000      0.9000           1
Sea_dep_thick   C                   800.0000      0.0000    167.5000    326.1500      1.0000      0.2284      0.9500      1.0000      0.9500      0.1000      0.2000           1
Sea_dep_thick   C                   800.0000      0.0000    167.5000    326.1500      1.0000      1.9058      0.9500      1.0000      0.9500      0.1000      0.9000           1
Sea_dep_thick   C                   800.0000      0.0000    167.5000    326.1500      1.0000      0.4492      0.9500      1.0000      0.9500      0.1000      0.2000           1
Sea_dep_thick   C                   800.0000      0.0000    167.5000    326.1500      1.0000      1.4245      0.9500      1.0000      0.9500      0.1000      0.9000           1
STlv-sl         D                  1000.0000      0.0000    134.5000    185.8970      1.0000      1.0590      0.9500      1.0000      0.9500      0.1000      0.9000           1
Sea_dep_thick   C                   800.0000      0.0000    167.5000    326.1500      1.0000      2.5724      0.9500      1.0000      0.9500      0.1000      0.9000           1
Sea_dep_thick   C                   800.0000      0.0000    167.5000    326.1500      1.0000      1.7376      0.9500      1.0000      0.9500      0.1000      0.9000           1
Sea_dep_thick   C                   800.0000      0.0000    167.5000    326.1500      1.0000      2.6707      0.9500      1.0000      0.9500      0.1000      0.9000           1
Sea_dep_thick   C                   800.0000      0.0000    167.5000    326.1500      1.0000      1.4081      0.9500      1.0000      0.9500      0.1000      0.9000           1
Sea_dep_thick   C                   800.0000      0.0000    167.5000    326.1500      1.0000      1.1738      0.9500      1.0000      0.9500      0.1000      0.9000           1
Sea_dep_thick   C                   800.0000      0.0000    167.5000    326.1500      1.0000      6.4268      0.9500      1.0000      0.9500      0.1000      0.9000           1
Sea_dep_thick   C                   800.0000      0.0000    167.5000    326.1500      1.0000      4.3649      0.9500      1.0000      0.9500      0.1000      0.9000           1
Sea_dep_thick   C                   800.0000      0.0000    167.5000    326.1500      1.0000      4.4602      0.9500      1.0000      0.9500      0.1000      0.9000           1
Sea_dep_thick   C                   800.0000      0.0000    167.5000    326.1500      1.0000      1.3867      0.9500      1.0000      0.9500      0.1000      0.9000           1
Sea_dep_thick   C                   800.0000      0.0000    167.5000    326.1500      1.0000      1.8466      0.9500      1.0000      0.9500      0.1000      0.9000           1
Sea_dep_thick   C                   800.0000      0.0000    167.5000    326.1500      1.0000      4.3841      0.9500      1.0000      0.9500      0.1000      0.9000           1
Sea_dep_thick   C                   800.0000      0.0000    167.5000    326.1500      1.0000      1.1455      0.9500      1.0000      0.9500      0.1000      0.9000           1
Sea_dep_thick   C                   800.0000      0.0000    167.5000    326.1500      1.0000      0.5764      0.9500      1.0000      0.9500      0.1000      0.2000           1
Sea_dep_thick   C                   800.0000      0.0000    167.5000    326.1500      1.0000      2.7574      0.9500      1.0000      0.9500      0.1000      0.9000           1
Sea_dep_thick   C                   800.0000      0.0000    167.5000    326.1500      1.0000      3.0060      0.9500      1.0000      0.9500      0.1000      0.9000           1
Sea_dep_thick   C                   800.0000      0.0000    167.5000    326.1500      1.0000      0.2072      0.9500      1.0000      0.9500      0.1000      0.2000           1
Sea_dep_thick   C                   800.0000      0.0000    167.5000    326.1500      1.0000      0.0874      0.9500      1.0000      0.9500      0.1000      0.0100           1
STlv-sl         D                  1000.0000      0.0000    134.5000    185.8970      0.7000      0.4739      0.9500      1.0000      0.9500      0.1000      0.0100           1
LVcm-sl         C                  1000.0000      0.0000    123.0000    274.9583      0.7000      1.1602      0.9500      1.0000      0.9500      0.1000      0.0100           1
STlv-sl         D                  1000.0000      0.0000    134.5000    185.8970      0.7000      0.1667      0.9500      1.0000      0.9500      0.1000      0.0100           1
STlv-sl         D                  1000.0000      0.0000    134.5000    185.8970      1.0000      0.2811      0.9500      1.0000      0.9500      0.1000      0.0100           1
STlv-sl         D                  1000.0000      0.0000    134.5000    185.8970      0.7000      0.9465      0.9500      1.0000      0.9500      0.1000      0.0100           1
STlv-sl         D                  1000.0000      0.0000    134.5000    185.8970      0.7000      0.3841      0.9500      1.0000      0.9500      0.1000      0.0100           1
STlv-sl         D                  1000.0000      0.0000    134.5000    185.8970      0.7000      0.2694      0.9500      1.0000      0.9500      0.1000      0.0100           1
STlv-sl         D                  1000.0000      0.0000    134.5000    185.8970      0.7000      0.4265      0.9500      1.0000      0.9500      0.1000      0.0100           1
LVcm-sl         C                  1000.0000      0.0000    123.0000    274.9583      0.7000      1.4068      0.9500      1.0000      0.9500      0.1000      0.0100           1
GLch-ce         D                  1000.0000      0.0000     90.0000    159.4951      0.7000      0.2428      0.9500      1.0000      0.9500      0.1000      0.0100           1
STlv-sl         D                  1000.0000      0.0000    134.5000    185.8970      0.3000      1.1256      0.9500      1.0000      0.9500      0.1000      0.0100           1
STlv-sl         D                  1000.0000      0.0000    134.5000    185.8970      0.7000      0.6408      0.9500      1.0000      0.9500      0.1000      0.0100           1
STlv-sl         D                  1000.0000      0.0000    134.5000    185.8970      1.0000      0.2176      0.9500      1.0000      0.9500      0.1000      0.0100           1
STlv-sl         D                  1000.0000      0.0000    134.5000    185.8970      0.7000      0.3520      0.9500      1.0000      0.9500      0.1000      0.0100           1
STlv-sl         D                  1000.0000      0.0000    134.5000    185.8970      0.7000      0.3157      0.9500      1.0000      0.9500      0.1000      0.0100           1
STlv-sl         D                  1000.0000      0.0000    134.5000    185.8970      0.7000      0.3517      0.9500      1.0000      0.9500      0.1000      0.0100           1
Sea_dep_thick   C                   800.0000      0.0000    167.5000    326.1500      1.0000      1.0124      0.9500      1.0000      0.9500      0.1000      0.9000           1
STrt-sl         D                  1000.0000      0.0000    153.5000    202.5774      1.0000      0.8239      0.9500      1.0000      0.9500      0.1000      0.9000           1
Sea_dep_thick   C                   800.0000      0.0000    167.5000    326.1500      1.0000      0.4085      0.9500      1.0000      0.9500      0.1000      0.2000           1
Sea_dep_thick   C                   800.0000      0.0000    167.5000    326.1500      1.0000      0.6729      0.9500      1.0000      0.9500      0.1000      0.2000           1
Sea_dep_thick   C                   800.0000      0.0000    167.5000    326.1500      1.0000      0.3741      0.9500      1.0000      0.9500      0.1000      0.2000           1
Sea_dep_thick   C                   800.0000      0.0000    167.5000    326.1500      1.0000      3.2831      0.9500      1.0000      0.9500      0.1000      0.9000           1
Sea_dep_thick   C                   800.0000      0.0000    167.5000    326.1500      1.0000      0.5771      0.9500      1.0000      0.9500      0.1000      0.2000           1
Sea_dep_thick   C                   800.0000      0.0000    167.5000    326.1500      1.0000      2.6208      0.9500      1.0000      0.9500      0.1000      0.9000           1
Sea_dep_thick   C                   800.0000      0.0000    167.5000    326.1500      1.0000      1.1697      0.9500      1.0000      0.9500      0.1000      0.9000           1
STrt-sl         D                  1000.0000      0.0000    153.5000    202.5774      1.0000      0.6954      0.9500      1.0000      0.9500      0.1000      0.9000           1
Sea_dep_thick   C                   800.0000      0.0000    167.5000    326.1500      1.0000      0.7192      0.9500      1.0000      0.9500      0.1000      0.9000           1
STrt-sl         D                  1000.0000      0.0000    153.5000    202.5774      0.2000      0.3365      0.9500      1.0000      0.9500      0.1000      0.0100           1
STrt-sl         D                  1000.0000      0.0000    153.5000    202.5774      0.2000      0.3479      0.9500      1.0000      0.9500      0.1000      0.0100           1
STrt-sl         D                  1000.0000      0.0000    153.5000    202.5774      1.0000      0.2534      0.9500      1.0000      0.9500      0.1000      0.0100           1
STlv-sl         D                  1000.0000      0.0000    134.5000    185.8970      0.2000      0.4519      0.9500      1.0000      0.9500      0.1000      0.0100           1
STrt-sl         D                  1000.0000      0.0000    153.5000    202.5774      1.0000      0.2846      0.9500      1.0000      0.9500      0.1000      0.0100           1
Sea_dep_thick   C                   800.0000      0.0000    167.5000    326.1500      1.0000      7.3093      0.9500      1.0000      0.9500      0.1000      0.0100           1
STeu-ce         D                  1000.0000      0.0000     47.7500     94.8604      1.0000      0.3712      0.9500      1.0000      0.9500      0.1000      0.0100           1
STeu-sl-pp      D                  1000.0000      0.0000    125.6321    199.8815      1.0000      0.8484      0.9500      1.0000      0.9500      0.1000      0.0100           1
STlv-sl         D                  1000.0000      0.0000    134.5000    185.8970      1.0000      0.2736      0.9500      1.0000      0.9500      0.1000      0.0100           1
STlv-sl         D                  1000.0000      0.0000    134.5000    185.8970      1.0000      0.2244      0.9500      1.0000      0.9500      0.1000      0.0100           1
STlv-sl         D                  1000.0000      0.0000    134.5000    185.8970      0.5000      0.4385      0.9500      1.0000      0.9500      0.1000      0.0100           1
Sea_dep_thick   C                   800.0000      0.0000    167.5000    326.1500      0.5000      0.9326      0.9500      1.0000      0.9500      0.1000      0.0100           1
Sea_dep_thick   C                   800.0000      0.0000    167.5000    326.1500      0.5000      0.4453      0.9500      1.0000      0.9500      0.1000      0.0100           1
STrt-sl         D                  1000.0000      0.0000    153.5000    202.5774      1.0000      0.7136      0.9500      1.0000      0.9500      0.1000      0.9000           1
STrt-sl         D                  1000.0000      0.0000    153.5000    202.5774      1.0000      0.6682      0.9500      1.0000      0.9500      0.1000      0.9000           1
STrt-sl         D                  1000.0000      0.0000    153.5000    202.5774      1.0000      0.7822      0.9500      1.0000      0.9500      0.1000      0.9000           1
Sea_dep_thick   C                   800.0000      0.0000    167.5000    326.1500      1.0000      0.6508      0.9500      1.0000      0.9500      0.1000      0.2000           1
Sea_dep_thick   C                   800.0000      0.0000    167.5000    326.1500      1.0000      0.5355      0.9500      1.0000      0.9500      0.1000      0.2000           1
Sea_dep_thick   C                   800.0000      0.0000    167.5000    326.1500      1.0000      0.7597      0.9500      1.0000      0.9500      0.1000      0.9000           1
STlv-sl         D                  1000.0000      0.0000    134.5000    185.8970      1.0000      0.6337      0.9500      1.0000      0.9500      0.1000      0.9000           1
STlv-sl         D                  1000.0000      0.0000    134.5000    185.8970      1.0000      0.3970      0.9500      1.0000      0.9500      0.1000      0.2000           1
STlv-sl         D                  1000.0000      0.0000    134.5000    185.8970      1.0000      0.2998      0.9500      1.0000      0.9500      0.1000      0.2000           1
Sea_dep_thick   C                   800.0000      0.0000    167.5000    326.1500      1.0000      0.8479      0.9500      1.0000      0.9500      0.1000      0.9000           1
STlv-sl         D                  1000.0000      0.0000    134.5000    185.8970      1.0000      1.2730      0.9500      1.0000      0.9500      0.1000      0.9000           1
STlv-sl         D                  1000.0000      0.0000    134.5000    185.8970      1.0000      0.2975      0.9500      1.0000      0.9500      0.1000      0.2000           1
STrt-sl         D                  1000.0000      0.0000    153.5000    202.5774      1.0000      0.7030      0.9500      1.0000      0.9500      0.1000      0.9000           1
Sea_dep_thick   C                   800.0000      0.0000    167.5000    326.1500      1.0000      0.8812      0.9500      1.0000      0.9500      0.1000      0.9000           1
Sea_dep_thick   C                   800.0000      0.0000    167.5000    326.1500      1.0000      0.7333      0.9500      1.0000      0.9500      0.1000      0.9000           1
Sea_dep_thick   C                   800.0000      0.0000    167.5000    326.1500      1.0000      1.0173      0.9500      1.0000      0.9500      0.1000      0.9000           1
Sea_dep_thick   C                   800.0000      0.0000    167.5000    326.1500      1.0000      0.4412      0.9500      1.0000      0.9500      0.1000      0.2000           1
Sea_dep_thick   C                   800.0000      0.0000    167.5000    326.1500      1.0000      2.2303      0.9500      1.0000      0.9500      0.1000      0.9000           1
Sea_dep_thick   C                   800.0000      0.0000    167.5000    326.1500      1.0000      1.7802      0.9500      1.0000      0.9500      0.1000      0.9000           1
Sea_dep_thick   C                   800.0000      0.0000    167.5000    326.1500      1.0000      0.6603      0.9500      1.0000      0.9500      0.1000      0.2000           1
Sea_dep_thick   C                   800.0000      0.0000    167.5000    326.1500      1.0000      0.3941      0.9500      1.0000      0.9500      0.1000      0.2000           1
Sea_dep_thick   C                   800.0000      0.0000    167.5000    326.1500      1.0000      0.9370      0.9500      1.0000      0.9500      0.1000      0.9000           1
STrt-sl         D                  1000.0000      0.0000    153.5000    202.5774      1.0000      0.9671      0.9500      1.0000      0.9500      0.1000      0.9000           1
Sea_dep_thick   C                   800.0000      0.0000    167.5000    326.1500      1.0000      1.8290      0.9500      1.0000      0.9500      0.1000      0.9000           1
Sea_dep_thick   C                   800.0000      0.0000    167.5000    326.1500      1.0000      0.8252      0.9500      1.0000      0.9500      0.1000      0.9000           1
Sea_dep_thick   C                   800.0000      0.0000    167.5000    326.1500      1.0000      1.1198      0.9500      1.0000      0.9500      0.1000      0.9000           1
Sea_dep_thick   C                   800.0000      0.0000    167.5000    326.1500      1.0000      1.4311      0.9500      1.0000      0.9500      0.1000      0.9000           1
Sea_dep_thick   C                   800.0000      0.0000    167.5000    326.1500      1.0000      1.0444      0.9500      1.0000      0.9500      0.1000      0.9000           1
Sea_dep_thick   C                   800.0000      0.0000    167.5000    326.1500      1.0000      1.7518      0.9500      1.0000      0.9500      0.1000      0.9000           1
Sea_dep_thick   C                   800.0000      0.0000    167.5000    326.1500      1.0000      2.4802      0.9500      1.0000      0.9500      0.1000      0.9000           1
Sea_dep_thick   C                   800.0000      0.0000    167.5000    326.1500      1.0000      1.2196      0.9500      1.0000      0.9500      0.1000      0.9000           1
Sea_dep_thick   C                   800.0000      0.0000    167.5000    326.1500      1.0000      3.5559      0.9500      1.0000      0.9500      0.1000      0.9000           1
Sea_dep_thick   C                   800.0000      0.0000    167.5000    326.1500      1.0000      1.0671      0.9500      1.0000      0.9500      0.1000      0.9000           1
Sea_dep_thick   C                   800.0000      0.0000    167.5000    326.1500      1.0000      0.7473      0.9500      1.0000      0.9500      0.1000      0.9000           1
Sea_dep_thick   C                   800.0000      0.0000    167.5000    326.1500      1.0000      0.9817      0.9500      1.0000      0.9500      0.1000      0.9000           1
Sea_dep_thick   C                   800.0000      0.0000    167.5000    326.1500      1.0000      2.8535      0.9500      1.0000      0.9500      0.1000      0.9000           1
Sea_dep_thick   C                   800.0000      0.0000    167.5000    326.1500      1.0000      1.0238      0.9500      1.0000      0.9500      0.1000      0.9000           1
Sea_dep_thick   C                   800.0000      0.0000    167.5000    326.1500      1.0000      0.9132      0.9500      1.0000      0.9500      0.1000      0.9000           1
Sea_dep_thick   C                   800.0000      0.0000    167.5000    326.1500      1.0000      0.9299      0.9500      1.0000      0.9500      0.1000      0.9000           1
Sea_dep_thick   C                   800.0000      0.0000    167.5000    326.1500      1.0000      0.7432      0.9500      1.0000      0.9500      0.1000      0.9000           1
STlv-sl         D                  1000.0000      0.0000    134.5000    185.8970      1.0000      0.5591      0.9500      1.0000      0.9500      0.1000      0.9000           1
Sea_dep_thick   C                   800.0000      0.0000    167.5000    326.1500      1.0000      0.6082      0.9500      1.0000      0.9500      0.1000      0.2000           1
STlv-sl         D                  1000.0000      0.0000    134.5000    185.8970      1.0000      0.8889      0.9500      1.0000      0.9500      0.1000      0.9000           1
Sea_dep_thick   C                   800.0000      0.0000    167.5000    326.1500      1.0000      1.4434      0.9500      1.0000      0.9500      0.1000      0.9000           1
Sea_dep_thick   C                   800.0000      0.0000    167.5000    326.1500      1.0000      3.1553      0.9500      1.0000      0.9500      0.1000      0.9000           1
Sea_dep_thick   C                   800.0000      0.0000    167.5000    326.1500      1.0000      5.4486      0.9500      1.0000      0.9500      0.1000      0.9000           1
Sea_dep_thick   C                   800.0000      0.0000    167.5000    326.1500      1.0000      1.4366      0.9500      1.0000      0.9500      0.1000      0.9000           1
Sea_dep_thick   C                   800.0000      0.0000    167.5000    326.1500      1.0000      1.0019      0.9500      1.0000      0.9500      0.1000      0.9000           1
Sea_dep_thick   C                   800.0000      0.0000    167.5000    326.1500      1.0000      0.6199      0.9500      1.0000      0.9500      0.1000      0.2000           1
Sea_dep_thick   C                   800.0000      0.0000    167.5000    326.1500      1.0000      0.9673      0.9500      1.0000      0.9500      0.1000      0.9000           1
Sea_dep_thick   C                   800.0000      0.0000    167.5000    326.1500      1.0000      0.6548      0.9500      1.0000      0.9500      0.1000      0.2000           1
Sea_dep_thick   C                   800.0000      0.0000    167.5000    326.1500      1.0000      2.8933      0.9500      1.0000      0.9500      0.1000      0.9000           1
Sea_dep_thick   C                   800.0000      0.0000    167.5000    326.1500      1.0000      3.0199      0.9500      1.0000      0.9500      0.1000      0.9000           1
Sea_dep_thick   C                   800.0000      0.0000    167.5000    326.1500      1.0000      1.3427      0.9500      1.0000      0.9500      0.1000      0.9000           1
Sea_dep_thick   C                   800.0000      0.0000    167.5000    326.1500      1.0000      0.9596      0.9500      1.0000      0.9500      0.1000      0.9000           1
Sea_dep_thick   C                   800.0000      0.0000    167.5000    326.1500      1.0000      0.4552      0.9500      1.0000      0.9500      0.1000      0.2000           1
Sea_dep_thick   C                   800.0000      0.0000    167.5000    326.1500      1.0000      0.7956      0.9500      1.0000      0.9500      0.1000      0.9000           1
Sea_dep_thick   C                   800.0000      0.0000    167.5000    326.1500      1.0000      0.9274      0.9500      1.0000      0.9500      0.1000      0.9000           1
Sea_dep_thick   C                   800.0000      0.0000    167.5000    326.1500      1.0000      1.0149      0.9500      1.0000      0.9500      0.1000      0.9000           1
Sea_dep_thick   C                   800.0000      0.0000    167.5000    326.1500      1.0000      0.5238      0.9500      1.0000      0.9500      0.1000      0.2000           1
Sea_dep_thick   C                   800.0000      0.0000    167.5000    326.1500      1.0000      0.4665      0.9500      1.0000      0.9500      0.1000      0.2000           1
Beach_dep       C                   800.0000      0.0000    167.5000    326.1500      1.0000      1.0848      0.9500      1.0000      0.9500      0.1000      0.9000           1
Beach_dep       C                   800.0000      0.0000    167.5000    326.1500      1.0000      0.7753      0.9500      1.0000      0.9500      0.1000      0.9000           1
Sea_dep_thick   C                   800.0000      0.0000    167.5000    326.1500      1.0000      0.7371      0.9500      1.0000      0.9500      0.1000      0.9000           1
STrt-sl         D                  1000.0000      0.0000    153.5000    202.5774      0.2000      0.4893      0.9500      1.0000      0.9500      0.1000      0.0100           1
STrt-sl         D                  1000.0000      0.0000    153.5000    202.5774      1.0000      0.2117      0.9500      1.0000      0.9500      0.1000      0.0100           1
STrt-sl         D                  1000.0000      0.0000    153.5000    202.5774      1.0000      0.2121      0.9500      1.0000      0.9500      0.1000      0.0100           1
STlv-sl         D                  1000.0000      0.0000    134.5000    185.8970      1.0000      0.2606      0.9500      1.0000      0.9500      0.1000      0.0100           1
STlv-sl         D                  1000.0000      0.0000    134.5000    185.8970      0.2000      0.4323      0.9500      1.0000      0.9500      0.1000      0.0100           1
STrt-sl         D                  1000.0000      0.0000    153.5000    202.5774      1.0000      0.3095      0.9500      1.0000      0.9500      0.1000      0.0100           1
STlv-sl         D                  1000.0000      0.0000    134.5000    185.8970      0.5000      0.4764      0.9500      1.0000      0.9500      0.1000      0.0100           1
STeu-ce         D                  1000.0000      0.0000     47.7500     94.8604      1.0000      0.2558      0.9500      1.0000      0.9500      0.1000      0.0100           1
STeu-sl-pp      D                  1000.0000      0.0000    125.6321    199.8815      1.0000      0.6629      0.9500      1.0000      0.9500      0.1000      0.0100           1
STeu-sl-pp      D                  1000.0000      0.0000    125.6321    199.8815      1.0000      0.7814      0.9500      1.0000      0.9500      0.1000      0.0100           1
STrt-sl         D                  1000.0000      0.0000    153.5000    202.5774      1.0000      0.3784      0.9500      1.0000      0.9500      0.1000      0.0100           1
STlv-sl         D                  1000.0000      0.0000    134.5000    185.8970      1.0000      0.2198      0.9500      1.0000      0.9500      0.1000      0.0100           1
STlv-sl         D                  1000.0000      0.0000    134.5000    185.8970      1.0000      0.2473      0.9500      1.0000      0.9500      0.1000      0.0100           1
STlv-sl         D                  1000.0000      0.0000    134.5000    185.8970      0.5000      0.3164      0.9500      1.0000      0.9500      0.1000      0.0100           1
STlv-sl         D                  1000.0000      0.0000    134.5000    185.8970      0.5000      0.4240      0.9500      1.0000      0.9500      0.1000      0.0100           1
STlv-sl         D                  1000.0000      0.0000    134.5000    185.8970      0.5000      0.9806      0.9500      1.0000      0.9500      0.1000      0.0100           1
Sea_dep_thick   C                   800.0000      0.0000    167.5000    326.1500      0.5000      0.4037      0.9500      1.0000      0.9500      0.1000      0.0100           1
Sea_dep_thick   C                   800.0000      0.0000    167.5000    326.1500      1.0000      0.8836      0.9500      1.0000      0.9500      0.1000      0.9000           1
Sea_dep_thick   C                   800.0000      0.0000    167.5000    326.1500      1.0000      0.7407      0.9500      1.0000      0.9500      0.1000      0.9000           1
Sea_dep_thick   C                   800.0000      0.0000    167.5000    326.1500      1.0000      0.5279      0.9500      1.0000      0.9500      0.1000      0.2000           1
STrt-sl         D                  1000.0000      0.0000    153.5000    202.5774      0.2000      0.6870      0.9500      1.0000      0.9500      0.1000      0.0100           1
STrt-sl         D                  1000.0000      0.0000    153.5000    202.5774      1.0000      0.3031      0.9500      1.0000      0.9500      0.1000      0.0100           1
STrt-sl         D                  1000.0000      0.0000    153.5000    202.5774      1.0000      0.1671      0.9500      1.0000      0.9500      0.1000      0.0100           1
STrt-sl         D                  1000.0000      0.0000    153.5000    202.5774      1.0000      0.2748      0.9500      1.0000      0.9500      0.1000      0.0100           1
STrt-sl         D                  1000.0000      0.0000    153.5000    202.5774      1.0000      0.4988      0.9500      1.0000      0.9500      0.1000      0.0100           1
Sea_dep_thick   C                   800.0000      0.0000    167.5000    326.1500      1.0000      1.5663      0.9500      1.0000      0.9500      0.1000      0.0100           1
STeu-sl-pp      D                  1000.0000      0.0000    125.6321    199.8815      1.0000      1.6155      0.9500      1.0000      0.9500      0.1000      0.0100           1
STeu-sl-pp      D                  1000.0000      0.0000    125.6321    199.8815      1.0000      1.8573      0.9500      1.0000      0.9500      0.1000      0.0100           1
STeu-sl-pp      D                  1000.0000      0.0000    125.6321    199.8815      1.0000      3.0107      0.9500      1.0000      0.9500      0.1000      0.0100           1
STlv-sl         D                  1000.0000      0.0000    134.5000    185.8970      1.0000      0.9768      0.9500      1.0000      0.9500      0.1000      0.0100           1
STlv-sl         D                  1000.0000      0.0000    134.5000    185.8970      1.0000      1.1908      0.9500      1.0000      0.9500      0.1000      0.0100           1
STlv-sl         D                  1000.0000      0.0000    134.5000    185.8970      1.0000      1.5885      0.9500      1.0000      0.9500      0.1000      0.0100           1
STlv-sl         D                  1000.0000      0.0000    134.5000    185.8970      0.5000      0.8065      0.9500      1.0000      0.9500      0.1000      0.0100           1
STlv-sl         D                  1000.0000      0.0000    134.5000    185.8970      0.5000      1.1434      0.9500      1.0000      0.9500      0.1000      0.0100           1
Sea_dep_thick   C                   800.0000      0.0000    167.5000    326.1500      0.5000      0.6748      0.9500      1.0000      0.9500      0.1000      0.0100           1
Sea_dep_thick   C                   800.0000      0.0000    167.5000    326.1500      0.5000      0.6606      0.9500      1.0000      0.9500      0.1000      0.0100           1
Sea_dep_thick   C                   800.0000      0.0000    167.5000    326.1500      1.0000      0.6657      0.9500      1.0000      0.9500      0.1000      0.0100           1
Sea_dep_thick   C                   800.0000      0.0000    167.5000    326.1500      1.0000      0.5977      0.9500      1.0000      0.9500      0.1000      0.0100           1
Sea_dep_thick   C                   800.0000      0.0000    167.5000    326.1500      0.5000      1.2510      0.9500      1.0000      0.9500      0.1000      0.0100           1
STrt-sl         D                  1000.0000      0.0000    153.5000    202.5774      1.0000      0.8538      0.9500      1.0000      0.9500      0.1000      0.0100           1
STrt-sl         D                  1000.0000      0.0000    153.5000    202.5774      1.0000      0.1898      0.9500      1.0000      0.9500      0.1000      0.0100           1
STeu-sl-pp      D                  1000.0000      0.0000    125.6321    199.8815      1.0000      0.5903      0.9500      1.0000      0.9500      0.1000      0.0100           1
STeu-sl-pp      D                  1000.0000      0.0000    125.6321    199.8815      1.0000      1.6754      0.9500      1.0000      0.9500      0.1000      0.0100           1
STrt-sl         D                  1000.0000      0.0000    153.5000    202.5774      1.0000      0.4771      0.9500      1.0000      0.9500      0.1000      0.0100           1
STlv-sl         D                  1000.0000      0.0000    134.5000    185.8970      1.0000      0.7670      0.9500      1.0000      0.9500      0.1000      0.0100           1
STlv-sl         D                  1000.0000      0.0000    134.5000    185.8970      1.0000      0.8716      0.9500      1.0000      0.9500      0.1000      0.0100           1
STlv-sl         D                  1000.0000      0.0000    134.5000    185.8970      0.5000      0.5058      0.9500      1.0000      0.9500      0.1000      0.0100           1
STlv-sl         D                  1000.0000      0.0000    134.5000    185.8970      0.5000      0.3053      0.9500      1.0000      0.9500      0.1000      0.0100           1
Sea_dep_thick   C                   800.0000      0.0000    167.5000    326.1500      0.5000      0.4445      0.9500      1.0000      0.9500      0.1000      0.0100           1
Mountain        D                   100.0000      0.0000     15.5000     53.7377      1.0000      1.3238      0.9500      1.0000      0.9500      0.1000      0.9000           1
Mountain        D                   100.0000      0.0000     15.5000     53.7377      1.0000      5.0299      0.9500      1.0000      0.9500      0.1000      0.9000           1
Sea_dep_thin    D                   150.0000      0.0000     37.5000     63.5745      1.0000      1.6763      0.9500      1.0000      0.9500      0.1000      0.9000           1
Sea_dep_thin    D                   150.0000      0.0000     37.5000     63.5745      1.0000      3.0668      0.9500      1.0000      0.9500      0.1000      0.9000           1
Sea_dep_thick   C                   800.0000      0.0000    167.5000    326.1500      1.0000      1.4455      0.9500      1.0000      0.9500      0.1000      0.9000           1
Sea_dep_thick   C                   800.0000      0.0000    167.5000    326.1500      1.0000      0.2521      0.9500      1.0000      0.9500      0.1000      0.2000           1
Sea_dep_thick   C                   800.0000      0.0000    167.5000    326.1500      1.0000      2.2647      0.9500      1.0000      0.9500      0.1000      0.9000           1
Sea_dep_thick   C                   800.0000      0.0000    167.5000    326.1500      1.0000      2.9481      0.9500      1.0000      0.9500      0.1000      0.9000           1
Sea_dep_thick   C                   800.0000      0.0000    167.5000    326.1500      1.0000      3.0128      0.9500      1.0000      0.9500      0.1000      0.9000           1
Sea_dep_thin    D                   150.0000      0.0000     37.5000     63.5745      1.0000      1.0173      0.9500      1.0000      0.9500      0.1000      0.9000           1
STeu-sl-pp      D                  1000.0000      0.0000    125.6321    199.8815      1.0000      2.3037      0.9500      1.0000      0.9500      0.1000      0.9000           1
Sea_dep_thick   C                   800.0000      0.0000    167.5000    326.1500      1.0000      0.9809      0.9500      1.0000      0.9500      0.1000      0.0100           1
Sea_dep_thin    D                   150.0000      0.0000     37.5000     63.5745      1.0000      1.3126      0.9500      1.0000      0.9500      0.0500      0.0100           0
STrt-sl         D                  1000.0000      0.0000    153.5000    202.5774      1.0000      3.4286      0.9500      1.0000      0.9500      0.1000      0.0100           1
STeu-sl-pp      D                  1000.0000      0.0000    125.6321    199.8815      1.0000      0.8670      0.9500      1.0000      0.9500      0.1000      0.0100           1
STlv-sl         D                  1000.0000      0.0000    134.5000    185.8970      1.0000      1.1552      0.9500      1.0000      0.9500      0.1000      0.0100           1
Sea_dep_thin    D                   150.0000      0.0000     37.5000     63.5745      1.0000      0.6328      0.9500      1.0000      0.9500      0.1000      0.9000           1
Sea_dep_thick   C                   800.0000      0.0000    167.5000    326.1500      1.0000      2.9897      0.9500      1.0000      0.9500      0.1000      0.9000           1
Sea_dep_thick   C                   800.0000      0.0000    167.5000    326.1500      1.0000      9.1566      0.9500      1.0000      0.9500      0.1000      0.9000           1
Sea_dep_thick   C                   800.0000      0.0000    167.5000    326.1500      1.0000      3.3078      0.9500      1.0000      0.9500      0.1000      0.9000           1
Sea_dep_thick   C                   800.0000      0.0000    167.5000    326.1500      1.0000      0.0711      0.9500      1.0000      0.9500      0.1000      0.0100           1
STeu-rp-sl      C                  1000.0000      0.0000    132.5000    281.6103      1.0000      0.0659      0.9500      1.0000      0.9500      0.1000      0.0100           1
Sea_dep_thick   C                   800.0000      0.0000    167.5000    326.1500      1.0000      0.0843      0.9500      1.0000      0.9500      0.1000      0.0100           1
Sea_dep_thick   C                   800.0000      0.0000    167.5000    326.1500      1.0000     15.3919      0.9500      1.0000      0.9500      0.1000      0.9000           1
Sea_dep_thick   C                   800.0000      0.0000    167.5000    326.1500      1.0000      0.3292      0.9500      1.0000      0.9500      0.1000      0.2000           1
Sea_dep_thick   C                   800.0000      0.0000    167.5000    326.1500      1.0000      0.0725      0.9500      1.0000      0.9500      0.1000      0.0100           1
Sea_dep_thick   C                   800.0000      0.0000    167.5000    326.1500      1.0000      0.0886      0.9500      1.0000      0.9500      0.1000      0.0100           1
Sea_dep_thick   C                   800.0000      0.0000    167.5000    326.1500      1.0000      0.5682      0.9500      1.0000      0.9500      0.1000      0.2000           1
STeu-rp-sl      C                  1000.0000      0.0000    132.5000    281.6103      1.0000      0.0662      0.9500      1.0000      0.9500      0.1000      0.0100           1
STeu-rp-sl      C                  1000.0000      0.0000    132.5000    281.6103      1.0000      0.0658      0.9500      1.0000      0.9500      0.1000      0.0100           1
Sea_dep_thick   C                   800.0000      0.0000    167.5000    326.1500      1.0000     12.6157      0.9500      1.0000      0.9500      0.1000      0.9000           1
Sea_dep_thick   C                   800.0000      0.0000    167.5000    326.1500      1.0000     10.1857      0.9500      1.0000      0.9500      0.1000      0.9000           1
Sea_dep_thick   C                   800.0000      0.0000    167.5000    326.1500      1.0000     12.9037      0.9500      1.0000      0.9500      0.1000      0.9000           1
Sea_dep_thick   C                   800.0000      0.0000    167.5000    326.1500      1.0000      3.0599      0.9500      1.0000      0.9500      0.1000      0.9000           1
Sea_dep_thick   C                   800.0000      0.0000    167.5000    326.1500      1.0000      1.5821      0.9500      1.0000      0.9500      0.1000      0.9000           1
Sea_dep_thick   C                   800.0000      0.0000    167.5000    326.1500      1.0000      1.2661      0.9500      1.0000      0.9500      0.1000      0.9000           1
Sea_dep_thick   C                   800.0000      0.0000    167.5000    326.1500      1.0000      8.7958      0.9500      1.0000      0.9500      0.1000      0.9000           1
Sea_dep_thick   C                   800.0000      0.0000    167.5000    326.1500      1.0000      6.2705      0.9500      1.0000      0.9500      0.1000      0.9000           1
STeu-sl-pp      D                  1000.0000      0.0000    125.6321    199.8815      1.0000      3.0399      0.9500      1.0000      0.9500      0.1000      0.0100           1
STeu-sl-pp      D                  1000.0000      0.0000    125.6321    199.8815      0.3000      2.0824      0.9500      1.0000      0.9500      0.1000      0.0100           1
Sea_dep_thick   C                   800.0000      0.0000    167.5000    326.1500      1.0000      5.0314      0.9500      1.0000      0.9500      0.1000      0.9000           1
STlv-sl         D                  1000.0000      0.0000    134.5000    185.8970      1.0000      1.6296      0.9500      1.0000      0.9500      0.1000      0.9000           1
Sea_dep_thick   C                   800.0000      0.0000    167.5000    326.1500      1.0000      1.6133      0.9500      1.0000      0.9500      0.1000      0.9000           1
Sea_dep_thick   C                   800.0000      0.0000    167.5000    326.1500      1.0000     10.2211      0.9500      1.0000      0.9500      0.1000      0.9000           1
Sea_dep_thick   C                   800.0000      0.0000    167.5000    326.1500      1.0000      9.6235      0.9500      1.0000      0.9500      0.1000      0.9000           1
Sea_dep_thick   C                   800.0000      0.0000    167.5000    326.1500      1.0000      2.0438      0.9500      1.0000      0.9500      0.1000      0.9000           1
STeu-sl-pp      D                  1000.0000      0.0000    125.6321    199.8815      0.3000      2.0386      0.9500      1.0000      0.9500      0.1000      0.0100           1
STeu-sl-pp      D                  1000.0000      0.0000    125.6321    199.8815      0.3000      1.0463      0.9500      1.0000      0.9500      0.1000      0.0100           1
LVcm-sl         C                  1000.0000      0.0000    123.0000    274.9583      0.3000      2.4547      0.9500      1.0000      0.9500      0.1000      0.0100           1
STeu-sl-pp      D                  1000.0000      0.0000    125.6321    199.8815      0.3000      3.3532      0.9500      1.0000      0.9500      0.1000      0.0100           1
LVcm-sl         C                  1000.0000      0.0000    123.0000    274.9583      0.3000      3.2588      0.9500      1.0000      0.9500      0.1000      0.0100           1
Sea_dep_thick   C                   800.0000      0.0000    167.5000    326.1500      1.0000      2.6549      0.9500      1.0000      0.9500      0.1000      0.9000           1
Sea_dep_thick   C                   800.0000      0.0000    167.5000    326.1500      1.0000     11.0091      0.9500      1.0000      0.9500      0.1000      0.9000           1
Sea_dep_thick   C                   800.0000      0.0000    167.5000    326.1500      1.0000      0.6476      0.9500      1.0000      0.9500      0.1000      0.2000           1
Sea_dep_thick   C                   800.0000      0.0000    167.5000    326.1500      1.0000     11.4724      0.9500      1.0000      0.9500      0.1000      0.9000           1
STrt-sl         D                  1000.0000      0.0000    153.5000    202.5774      0.3000      1.7922      0.9500      1.0000      0.9500      0.1000      0.0100           1
LVcm-sl         C                  1000.0000      0.0000    123.0000    274.9583      0.3000      2.7173      0.9500      1.0000      0.9500      0.1000      0.0100           1
STeu-sl-pp      D                  1000.0000      0.0000    125.6321    199.8815      0.3000      1.5127      0.9500      1.0000      0.9500      0.1000      0.0100           1
STrt-sl         D                  1000.0000      0.0000    153.5000    202.5774      0.3000      1.7609      0.9500      1.0000      0.9500      0.1000      0.0100           1
Sea_dep_thick   C                   800.0000      0.0000    167.5000    326.1500      1.0000      1.1414      0.9500      1.0000      0.9500      0.1000      0.9000           1
Sea_dep_thick   C                   800.0000      0.0000    167.5000    326.1500      1.0000      1.4237      0.9500      1.0000      0.9500      0.1000      0.9000           1
Sea_dep_thick   C                   800.0000      0.0000    167.5000    326.1500      1.0000      5.0229      0.9500      1.0000      0.9500      0.1000      0.9000           1
Sea_dep_thick   C                   800.0000      0.0000    167.5000    326.1500      1.0000      0.3791      0.9500      1.0000      0.9500      0.1000      0.2000           1
Sea_dep_thick   C                   800.0000      0.0000    167.5000    326.1500      1.0000      3.7728      0.9500      1.0000      0.9500      0.1000      0.9000           1
STrt-sl         D                  1000.0000      0.0000    153.5000    202.5774      0.3000      1.2145      0.9500      1.0000      0.9500      0.1000      0.0100           1
STrt-sl         D                  1000.0000      0.0000    153.5000    202.5774      0.3000      0.3553      0.9500      1.0000      0.9500      0.1000      0.0100           1
STeu-sl-pp      D                  1000.0000      0.0000    125.6321    199.8815      0.3000      0.6784      0.9500      1.0000      0.9500      0.1000      0.0100           1
Sea_dep_thick   C                   800.0000      0.0000    167.5000    326.1500      1.0000      3.4201      0.9500      1.0000      0.9500      0.1000      0.9000           1
STlv-sl         D                  1000.0000      0.0000    134.5000    185.8970      0.3000      3.8836      0.9500      1.0000      0.9500      0.1000      0.0100           1
Sea_dep_thick   C                   800.0000      0.0000    167.5000    326.1500      1.0000      1.8177      0.9500      1.0000      0.9500      0.1000      0.9000           1
Sea_dep_thick   C                   800.0000      0.0000    167.5000    326.1500      1.0000      9.6682      0.9500      1.0000      0.9500      0.1000      0.9000           1
Sea_dep_thin    D                   150.0000      0.0000     37.5000     63.5745      1.0000      0.6643      0.9500      1.0000      0.9500      0.1000      0.9000           1
LVcm-sl         C                  1000.0000      0.0000    123.0000    274.9583      1.0000      1.1778      0.9500      1.0000      0.9500      0.1000      0.9000           1
Mountain        D                   100.0000      0.0000     15.5000     53.7377      1.0000      2.1051      0.9500      1.0000      0.9500      0.1000      0.9000           1
Sea_dep_thick   C                   800.0000      0.0000    167.5000    326.1500      1.0000     10.6820      0.9500      1.0000      0.9500      0.1000      0.9000           1
LVcm-sl         C                  1000.0000      0.0000    123.0000    274.9583      1.0000      1.9640      0.9500      1.0000      0.9500      0.1000      0.0100           1
LVcm-sl         C                  1000.0000      0.0000    123.0000    274.9583      1.0000      0.9487      0.9500      1.0000      0.9500      0.1000      0.0100           1
LVcm-sl         C                  1000.0000      0.0000    123.0000    274.9583      1.0000      1.0499      0.9500      1.0000      0.9500      0.1000      0.9000           1
Mountain        D                   100.0000      0.0000     15.5000     53.7377      1.0000      0.7616      0.9500      1.0000      0.9500      0.1000      0.9000           1
Sea_dep_thick   C                   800.0000      0.0000    167.5000    326.1500      1.0000      9.2990      0.9500      1.0000      0.9500      0.1000      0.9000           1
Sea_dep_thick   C                   800.0000      0.0000    167.5000    326.1500      1.0000      7.2905      0.9500      1.0000      0.9500      0.1000      0.9000           1
Sea_dep_thick   C                   800.0000      0.0000    167.5000    326.1500      1.0000     11.6793      0.9500      1.0000      0.9500      0.1000      0.9000           1
Sea_dep_thick   C                   800.0000      0.0000    167.5000    326.1500      1.0000      9.0993      0.9500      1.0000      0.9500      0.1000      0.9000           1
Sea_dep_thick   C                   800.0000      0.0000    167.5000    326.1500      1.0000      8.5445      0.9500      1.0000      0.9500      0.1000      0.9000           1
Sea_dep_thick   C                   800.0000      0.0000    167.5000    326.1500      1.0000      6.0526      0.9500      1.0000      0.9500      0.1000      0.9000           1
Sea_dep_thick   C                   800.0000      0.0000    167.5000    326.1500      1.0000      5.2002      0.9500      1.0000      0.9500      0.1000      0.9000           1
Sea_dep_thick   C                   800.0000      0.0000    167.5000    326.1500      1.0000      5.9478      0.9500      1.0000      0.9500      0.1000      0.9000           1
Sea_dep_thick   C                   800.0000      0.0000    167.5000    326.1500      1.0000      6.0626      0.9500      1.0000      0.9500      0.1000      0.9000           1
STeu-sl-pp      D                  1000.0000      0.0000    125.6321    199.8815      1.0000      0.6504      0.9500      1.0000      0.9500      0.1000      0.0100           1
STfv            D                  1000.0000      0.0000     98.7500    329.4727      0.3000      1.8021      0.9500      1.0000      0.9500      0.1000      0.0100           1
STrt-sl         D                  1000.0000      0.0000    153.5000    202.5774      0.3000      1.9340      0.9500      1.0000      0.9500      0.1000      0.0100           1
Mountain        D                   100.0000      0.0000     15.5000     53.7377      1.0000      2.1620      0.9500      1.0000      0.9500      0.1000      0.9000           1
Sea_dep_thick   C                   800.0000      0.0000    167.5000    326.1500      1.0000      2.4971      0.9500      1.0000      0.9500      0.1000      0.9000           1
Mountain        D                   100.0000      0.0000     15.5000     53.7377      1.0000      2.8599      0.9500      1.0000      0.9500      0.1000      0.9000           1
Humic           D                   250.0000      0.0000     87.5000    201.4109      1.0000      5.3826      0.9500      1.0000      0.9500      0.1000      0.9000           1
Sea_dep_thin    D                   150.0000      0.0000     37.5000     63.5745      1.0000      4.4831      0.9500      1.0000      0.9500      0.1000      0.9000           1
Sea_dep_thick   C                   800.0000      0.0000    167.5000    326.1500      1.0000      0.6922      0.9500      1.0000      0.9500      0.1000      0.9000           1
Mountain        D                   100.0000      0.0000     15.5000     53.7377      1.0000      2.3546      0.9500      1.0000      0.9500      0.1000      0.9000           1
Mountain        D                   100.0000      0.0000     15.5000     53.7377      1.0000      0.5625      0.9500      1.0000      0.9500      0.1000      0.9000           1
Sea_dep_thick   C                   800.0000      0.0000    167.5000    326.1500      1.0000      0.2662      0.9500      1.0000      0.9500      0.1000      0.2000           1
LVlen-sl        D                   700.0000      0.0000    103.5000    212.6557      1.0000      0.7305      0.9500      1.0000      0.9500      0.1000      0.9000           1
Mountain        D                   100.0000      0.0000     15.5000     53.7377      1.0000      3.5266      0.9500      1.0000      0.9500      0.1000      0.9000           1
Sea_dep_thick   C                   800.0000      0.0000    167.5000    326.1500      1.0000      2.1493      0.9500      1.0000      0.9500      0.1000      0.9000           1
Mountain        D                   100.0000      0.0000     15.5000     53.7377      1.0000      5.4238      0.9500      1.0000      0.9500      0.1000      0.9000           1
Mountain        D                   100.0000      0.0000     15.5000     53.7377      1.0000      4.3931      0.9500      1.0000      0.9500      0.1000      0.9000           1
Humic           D                   250.0000      0.0000     87.5000    201.4109      1.0000      1.3230      0.9500      1.0000      0.9500      0.1000      0.9000           1
Sea_dep_thick   C                   800.0000      0.0000    167.5000    326.1500      1.0000      0.1485      0.9500      1.0000      0.9500      0.1000      0.0100           1
Mountain        D                   100.0000      0.0000     15.5000     53.7377      1.0000      3.4945      0.9500      1.0000      0.9500      0.1000      0.9000           1
Mountain        D                   100.0000      0.0000     15.5000     53.7377      1.0000      3.8349      0.9500      1.0000      0.9500      0.1000      0.9000           1
Humic           D                   250.0000      0.0000     87.5000    201.4109      1.0000      4.7433      0.9500      1.0000      0.9500      0.1000      0.9000           1
Sea_dep_thick   C                   800.0000      0.0000    167.5000    326.1500      1.0000      0.5391      0.9500      1.0000      0.9500      0.1000      0.2000           1
Sea_dep_thick   C                   800.0000      0.0000    167.5000    326.1500      1.0000      0.2365      0.9500      1.0000      0.9500      0.1000      0.2000           1
Mountain        D                   100.0000      0.0000     15.5000     53.7377      1.0000      2.6662      0.9500      1.0000      0.9500      0.1000      0.9000           1
End_moraine     D                   100.0000      0.0000     15.5000     53.7377      1.0000      0.4978      0.9500      1.0000      0.9500      0.1000      0.9000           1
Mountain        D                   100.0000      0.0000     15.5000     53.7377      1.0000      2.9891      0.9500      1.0000      0.9500      0.1000      0.9000           1
STlv-sl         D                  1000.0000      0.0000    134.5000    185.8970      0.5000      0.4231      0.9500      1.0000      0.9500      0.1000      0.0100           1
HSsa-dy-rp      D                  1000.0000      0.0000    264.0000    771.5316      0.3000      0.3290      0.9500      1.0000      0.9500      0.1000      0.0100           1
CMdy            C                  1000.0000      0.0000    130.7500    371.0863      0.3000      0.9840      0.9500      1.0000      0.9500      0.1000      0.0100           1
PLdy            C                  1000.0000      0.0000    188.0000    330.8775      0.8500      0.1577      0.9500      1.0000      0.9500      0.1000      0.0100           1
STlv-sl         D                  1000.0000      0.0000    134.5000    185.8970      0.8500      0.1319      0.9500      1.0000      0.9500      0.1000      0.0100           1
STlv-sl         D                  1000.0000      0.0000    134.5000    185.8970      0.8500      0.5937      0.9500      1.0000      0.9500      0.1000      0.0100           1
STlv-sl         D                  1000.0000      0.0000    134.5000    185.8970      0.8500      0.5686      0.9500      1.0000      0.9500      0.1000      0.0100           1
STlv-sl         D                  1000.0000      0.0000    134.5000    185.8970      0.5000      0.8593      0.9500      1.0000      0.9500      0.1000      0.0100           1
STlv-sl         D                  1000.0000      0.0000    134.5000    185.8970      0.5000      1.0597      0.9500      1.0000      0.9500      0.1000      0.0100           1
STlv-sl         D                  1000.0000      0.0000    134.5000    185.8970      0.5000      1.0525      0.9500      1.0000      0.9500      0.1000      0.0100           1
STlv-sl         D                  1000.0000      0.0000    134.5000    185.8970      0.5000      1.0721      0.9500      1.0000      0.9500      0.1000      0.0100           1
CMdy            C                  1000.0000      0.0000    130.7500    371.0863      1.0000      1.5009      0.9500      1.0000      0.9500      0.1000      0.0100           1
STlv-sl         D                  1000.0000      0.0000    134.5000    185.8970      1.0000      0.4135      0.9500      1.0000      0.9500      0.1000      0.9000           1
Sea_dep_thin    D                   150.0000      0.0000     37.5000     63.5745      1.0000      0.3524      0.9500      1.0000      0.9500      0.1000      0.2000           1
CMdy            C                  1000.0000      0.0000    130.7500    371.0863      1.0000      0.8955      0.9500      1.0000      0.9500      0.1000      0.9000           1
Humic           D                   250.0000      0.0000     87.5000    201.4109      1.0000      2.4960      0.9500      1.0000      0.9500      0.1000      0.9000           1
Sea_dep_thick   C                   800.0000      0.0000    167.5000    326.1500      1.0000      5.9454      0.9500      1.0000      0.9500      0.1000      0.9000           1
Sea_dep_thick   C                   800.0000      0.0000    167.5000    326.1500      1.0000      2.3011      0.9500      1.0000      0.9500      0.1000      0.9000           1
Sea_dep_thick   C                   800.0000      0.0000    167.5000    326.1500      1.0000      2.1538      0.9500      1.0000      0.9500      0.1000      0.9000           1
Sea_dep_thick   C                   800.0000      0.0000    167.5000    326.1500      1.0000      2.0922      0.9500      1.0000      0.9500      0.1000      0.9000           1
Sea_dep_thick   C                   800.0000      0.0000    167.5000    326.1500      1.0000      2.5724      0.9500      1.0000      0.9500      0.1000      0.9000           1
HSsa-dy-rp      D                  1000.0000      0.0000    264.0000    771.5316      0.3000      1.2484      0.9500      1.0000      0.9500      0.1000      0.0100           1
Sea_dep_thick   C                   800.0000      0.0000    167.5000    326.1500      1.0000      4.8773      0.9500      1.0000      0.9500      0.1000      0.9000           1
STlv-sl         D                  1000.0000      0.0000    134.5000    185.8970      0.5000      0.4410      0.9500      1.0000      0.9500      0.1000      0.0100           1
STlv-sl         D                  1000.0000      0.0000    134.5000    185.8970      0.8500      0.1362      0.9500      1.0000      0.9500      0.1000      0.0100           1
STeu-sl-pp      D                  1000.0000      0.0000    125.6321    199.8815      0.5000      0.6088      0.9500      1.0000      0.9500      0.1000      0.0100           1
STlv-sl         D                  1000.0000      0.0000    134.5000    185.8970      0.5000      0.3395      0.9500      1.0000      0.9500      0.1000      0.0100           1
STlv-sl         D                  1000.0000      0.0000    134.5000    185.8970      0.5000      0.2997      0.9500      1.0000      0.9500      0.1000      0.0100           1
STlv-sl         D                  1000.0000      0.0000    134.5000    185.8970      0.5000      0.7136      0.9500      1.0000      0.9500      0.1000      0.0100           1
STlv-sl         D                  1000.0000      0.0000    134.5000    185.8970      0.5000      0.3453      0.9500      1.0000      0.9500      0.1000      0.0100           1
STlv-sl         D                  1000.0000      0.0000    134.5000    185.8970      0.8500      0.3760      0.9500      1.0000      0.9500      0.1000      0.0100           1
STlv-sl         D                  1000.0000      0.0000    134.5000    185.8970      0.8500      0.2540      0.9500      1.0000      0.9500      0.1000      0.0100           1
STlv-sl         D                  1000.0000      0.0000    134.5000    185.8970      0.8500      0.2773      0.9500      1.0000      0.9500      0.1000      0.0100           1
Sea_dep_thick   C                   800.0000      0.0000    167.5000    326.1500      0.5000      1.2531      0.9500      1.0000      0.9500      0.1000      0.0100           1
STlv-sl         D                  1000.0000      0.0000    134.5000    185.8970      0.5000      0.2636      0.9500      1.0000      0.9500      0.1000      0.0100           1
HSsa-dy-rp      D                  1000.0000      0.0000    264.0000    771.5316      0.5000      0.2432      0.9500      1.0000      0.9500      0.1000      0.0100           1
GLch-hu-sl      D                  1000.0000      0.0000    194.0000    376.5494      0.5000      0.7451      0.9500      1.0000      0.9500      0.1000      0.0100           1
STlv-sl         D                  1000.0000      0.0000    134.5000    185.8970      0.5000      0.2944      0.9500      1.0000      0.9500      0.1000      0.0100           1
STlv-sl         D                  1000.0000      0.0000    134.5000    185.8970      0.5000      0.1394      0.9500      1.0000      0.9500      0.1000      0.0100           1
STlv-sl         D                  1000.0000      0.0000    134.5000    185.8970      0.5000      1.2798      0.9500      1.0000      0.9500      0.1000      0.0100           1
Sea_dep_thick   C                   800.0000      0.0000    167.5000    326.1500      0.5000      1.1171      0.9500      1.0000      0.9500      0.1000      0.0100           1
HSsa-dy-rp      D                  1000.0000      0.0000    264.0000    771.5316      0.5000      1.3601      0.9500      1.0000      0.9500      0.1000      0.0100           1
GLch-hu-sl      D                  1000.0000      0.0000    194.0000    376.5494      0.5000      0.8598      0.9500      1.0000      0.9500      0.1000      0.0100           1
GLch-hu-sl      D                  1000.0000      0.0000    194.0000    376.5494      0.5000      0.7132      0.9500      1.0000      0.9500      0.1000      0.0100           1
STlv-sl         D                  1000.0000      0.0000    134.5000    185.8970      0.5000      0.3936      0.9500      1.0000      0.9500      0.1000      0.0100           1
STlv-sl         D                  1000.0000      0.0000    134.5000    185.8970      0.5000      0.2051      0.9500      1.0000      0.9500      0.1000      0.0100           1
STlv-sl         D                  1000.0000      0.0000    134.5000    185.8970      0.5000      0.6008      0.9500      1.0000      0.9500      0.1000      0.0100           1
STlv-sl         D                  1000.0000      0.0000    134.5000    185.8970      0.5000      0.1703      0.9500      1.0000      0.9500      0.1000      0.0100           1
Sea_dep_thin    D                   150.0000      0.0000     37.5000     63.5745      1.0000      1.7671      0.9500      1.0000      0.9500      0.1000      0.9000           1
Sea_dep_thick   C                   800.0000      0.0000    167.5000    326.1500      1.0000      1.7569      0.9500      1.0000      0.9500      0.1000      0.9000           1
Sea_dep_thick   C                   800.0000      0.0000    167.5000    326.1500      1.0000      3.6860      0.9500      1.0000      0.9500      0.1000      0.9000           1
Sea_dep_thick   C                   800.0000      0.0000    167.5000    326.1500      1.0000      2.0053      0.9500      1.0000      0.9500      0.1000      0.9000           1
Sea_dep_thick   C                   800.0000      0.0000    167.5000    326.1500      1.0000      3.1967      0.9500      1.0000      0.9500      0.1000      0.9000           1
Sea_dep_thick   C                   800.0000      0.0000    167.5000    326.1500      1.0000      4.6208      0.9500      1.0000      0.9500      0.1000      0.9000           1
Sea_dep_thick   C                   800.0000      0.0000    167.5000    326.1500      1.0000      7.6016      0.9500      1.0000      0.9500      0.1000      0.9000           1
STrt-sl         D                  1000.0000      0.0000    153.5000    202.5774      1.0000      0.5374      0.9500      1.0000      0.9500      0.1000      0.9000           1
Sea_dep_thick   C                   800.0000      0.0000    167.5000    326.1500      1.0000      0.6048      0.9500      1.0000      0.9500      0.1000      0.2000           1
STrt-sl         D                  1000.0000      0.0000    153.5000    202.5774      1.0000      1.0874      0.9500      1.0000      0.9500      0.1000      0.9000           1
Sea_dep_thick   C                   800.0000      0.0000    167.5000    326.1500      1.0000      1.0533      0.9500      1.0000      0.9500      0.1000      0.9000           1
Sea_dep_thick   C                   800.0000      0.0000    167.5000    326.1500      1.0000      0.0663      0.9500      1.0000      0.9500      0.1000      0.0100           1
Sea_dep_thick   C                   800.0000      0.0000    167.5000    326.1500      1.0000      0.0664      0.9500      1.0000      0.9500      0.1000      0.0100           1
Sea_dep_thick   C                   800.0000      0.0000    167.5000    326.1500      1.0000      0.0662      0.9500      1.0000      0.9500      0.1000      0.0100           1
Sea_dep_thick   C                   800.0000      0.0000    167.5000    326.1500      1.0000      0.0661      0.9500      1.0000      0.9500      0.1000      0.0100           1
STrt-sl         D                  1000.0000      0.0000    153.5000    202.5774      1.0000      0.0660      0.9500      1.0000      0.9500      0.1000      0.0100           1
Sea_dep_thick   C                   800.0000      0.0000    167.5000    326.1500      1.0000      0.0661      0.9500      1.0000      0.9500      0.1000      0.0100           1
Sea_dep_thick   C                   800.0000      0.0000    167.5000    326.1500      1.0000      0.0660      0.9500      1.0000      0.9500      0.1000      0.0100           1
STrt-sl         D                  1000.0000      0.0000    153.5000    202.5774      1.0000      0.0660      0.9500      1.0000      0.9500      0.1000      0.0100           1
STrt-sl         D                  1000.0000      0.0000    153.5000    202.5774      1.0000      0.0660      0.9500      1.0000      0.9500      0.1000      0.0100           1
Sea_dep_thick   C                   800.0000      0.0000    167.5000    326.1500      1.0000      0.0661      0.9500      1.0000      0.9500      0.1000      0.0100           1
STrt-sl         D                  1000.0000      0.0000    153.5000    202.5774      1.0000      0.4533      0.9500      1.0000      0.9500      0.1000      0.0100           1
STrt-sl         D                  1000.0000      0.0000    153.5000    202.5774      1.0000      1.0452      0.9500      1.0000      0.9500      0.1000      0.0100           1
STrt-sl         D                  1000.0000      0.0000    153.5000    202.5774      1.0000      0.2614      0.9500      1.0000      0.9500      0.1000      0.0100           1
STrt-sl         D                  1000.0000      0.0000    153.5000    202.5774      1.0000      0.1742      0.9500      1.0000      0.9500      0.1000      0.0100           1
STrt-sl         D                  1000.0000      0.0000    153.5000    202.5774      1.0000      0.1057      0.9500      1.0000      0.9500      0.1000      0.0100           1
STrt-sl         D                  1000.0000      0.0000    153.5000    202.5774      1.0000      0.0732      0.9500      1.0000      0.9500      0.1000      0.0100           1
STrt-sl         D                  1000.0000      0.0000    153.5000    202.5774      1.0000      0.0849      0.9500      1.0000      0.9500      0.1000      0.0100           1
STlv-sl         D                  1000.0000      0.0000    134.5000    185.8970      1.0000      0.0661      0.9500      1.0000      0.9500      0.1000      0.0100           1
STrt-sl         D                  1000.0000      0.0000    153.5000    202.5774      1.0000      0.1086      0.9500      1.0000      0.9500      0.1000      0.0100           1
STrt-sl         D                  1000.0000      0.0000    153.5000    202.5774      1.0000      0.0689      0.9500      1.0000      0.9500      0.1000      0.0100           1
STlv-sl         D                  1000.0000      0.0000    134.5000    185.8970      1.0000      0.0660      0.9500      1.0000      0.9500      0.1000      0.0100           1
Sea_dep_thick   C                   800.0000      0.0000    167.5000    326.1500      1.0000      0.5951      0.9500      1.0000      0.9500      0.1000      0.2000           1
STrt-sl         D                  1000.0000      0.0000    153.5000    202.5774      1.0000      1.7765      0.9500      1.0000      0.9500      0.1000      0.9000           1
STrt-sl         D                  1000.0000      0.0000    153.5000    202.5774      1.0000      1.1069      0.9500      1.0000      0.9500      0.1000      0.9000           1
Sea_dep_thick   C                   800.0000      0.0000    167.5000    326.1500      1.0000      3.1013      0.9500      1.0000      0.9500      0.1000      0.9000           1
Sea_dep_thick   C                   800.0000      0.0000    167.5000    326.1500      1.0000      5.2415      0.9500      1.0000      0.9500      0.1000      0.9000           1
STrt-sl         D                  1000.0000      0.0000    153.5000    202.5774      1.0000      1.8378      0.9500      1.0000      0.9500      0.1000      0.9000           1
STrt-sl         D                  1000.0000      0.0000    153.5000    202.5774      1.0000      1.0358      0.9500      1.0000      0.9500      0.1000      0.0100           1
STrt-sl         D                  1000.0000      0.0000    153.5000    202.5774      1.0000      0.8046      0.9500      1.0000      0.9500      0.1000      0.0100           1
STrt-sl         D                  1000.0000      0.0000    153.5000    202.5774      1.0000      1.1899      0.9500      1.0000      0.9500      0.1000      0.0100           1
STrt-sl         D                  1000.0000      0.0000    153.5000    202.5774      1.0000      0.9817      0.9500      1.0000      0.9500      0.1000      0.9000           1
STlv-sl         D                  1000.0000      0.0000    134.5000    185.8970      1.0000      1.1239      0.9500      1.0000      0.9500      0.1000      0.9000           1
Sea_dep_thick   C                   800.0000      0.0000    167.5000    326.1500      1.0000      1.3069      0.9500      1.0000      0.9500      0.1000      0.9000           1
STrt-sl         D                  1000.0000      0.0000    153.5000    202.5774      1.0000      0.4880      0.9500      1.0000      0.9500      0.1000      0.9000           1
STrt-sl         D                  1000.0000      0.0000    153.5000    202.5774      1.0000      0.4800      0.9500      1.0000      0.9500      0.1000      0.9000           1
STlv-sl         D                  1000.0000      0.0000    134.5000    185.8970      1.0000      2.1987      0.9500      1.0000      0.9500      0.1000      0.9000           1
STrt-sl         D                  1000.0000      0.0000    153.5000    202.5774      1.0000      2.4625      0.9500      1.0000      0.9500      0.1000      0.9000           1
STrt-sl         D                  1000.0000      0.0000    153.5000    202.5774      1.0000      0.5126      0.9500      1.0000      0.9500      0.1000      0.9000           1
Sea_dep_thick   C                   800.0000      0.0000    167.5000    326.1500      1.0000      7.0740      0.9500      1.0000      0.9500      0.1000      0.9000           1
Sea_dep_thick   C                   800.0000      0.0000    167.5000    326.1500      1.0000      7.3719      0.9500      1.0000      0.9500      0.1000      0.9000           1
Sea_dep_thick   C                   800.0000      0.0000    167.5000    326.1500      1.0000     14.1747      0.9500      1.0000      0.9500      0.1000      0.9000           1
Sea_dep_thick   C                   800.0000      0.0000    167.5000    326.1500      1.0000      0.3790      0.9500      1.0000      0.9500      0.1000      0.2000           1
Sea_dep_thick   C                   800.0000      0.0000    167.5000    326.1500      1.0000      3.8352      0.9500      1.0000      0.9500      0.1000      0.9000           1
Sea_dep_thick   C                   800.0000      0.0000    167.5000    326.1500      1.0000      4.7451      0.9500      1.0000      0.9500      0.1000      0.9000           1
Sea_dep_thick   C                   800.0000      0.0000    167.5000    326.1500      1.0000      7.9821      0.9500      1.0000      0.9500      0.1000      0.9000           1
Sea_dep_thick   C                   800.0000      0.0000    167.5000    326.1500      1.0000      0.2373      0.9500      1.0000      0.9500      0.1000      0.2000           1
Sea_dep_thick   C                   800.0000      0.0000    167.5000    326.1500      1.0000      6.8801      0.9500      1.0000      0.9500      0.1000      0.9000           1
Sea_dep_thick   C                   800.0000      0.0000    167.5000    326.1500      1.0000      7.2747      0.9500      1.0000      0.9500      0.1000      0.9000           1
Sea_dep_thick   C                   800.0000      0.0000    167.5000    326.1500      1.0000      7.2013      0.9500      1.0000      0.9500      0.1000      0.9000           1
Sea_dep_thick   C                   800.0000      0.0000    167.5000    326.1500      1.0000      3.9032      0.9500      1.0000      0.9500      0.1000      0.9000           1
Sea_dep_thick   C                   800.0000      0.0000    167.5000    326.1500      1.0000      5.4562      0.9500      1.0000      0.9500      0.1000      0.9000           1
Sea_dep_thick   C                   800.0000      0.0000    167.5000    326.1500      1.0000      0.0660      0.9500      1.0000      0.9500      0.1000      0.0100           1
STlv-sl         D                  1000.0000      0.0000    134.5000    185.8970      1.0000      1.9141      0.9500      1.0000      0.9500      0.1000      0.0100           1
LVcm-sl         C                  1000.0000      0.0000    123.0000    274.9583      1.0000      0.6720      0.9500      1.0000      0.9500      0.1000      0.0100           1
STeu-sl-pp      D                  1000.0000      0.0000    125.6321    199.8815      1.0000      0.8153      0.9500      1.0000      0.9500      0.1000      0.0100           1
STfv            D                  1000.0000      0.0000     98.7500    329.4727      1.0000      0.0746      0.9500      1.0000      0.9500      0.1000      0.0100           1
STfv            D                  1000.0000      0.0000     98.7500    329.4727      1.0000      0.1253      0.9500      1.0000      0.9500      0.1000      0.0100           1
GLum-fv-hu-sl   C                  1000.0000      0.0000    187.0000    343.4109      1.0000      0.6276      0.9500      1.0000      0.9500      0.1000      0.0100           1
GLum-fv-hu-sl   C                  1000.0000      0.0000    187.0000    343.4109      1.0000      0.3877      0.9500      1.0000      0.9500      0.1000      0.0100           1
GLum-fv-hu-sl   C                  1000.0000      0.0000    187.0000    343.4109      1.0000      0.0919      0.9500      1.0000      0.9500      0.1000      0.0100           1
STfv            D                  1000.0000      0.0000     98.7500    329.4727      1.0000      0.0684      0.9500      1.0000      0.9500      0.1000      0.0100           1
GLum-fv-hu-sl   C                  1000.0000      0.0000    187.0000    343.4109      1.0000      0.2599      0.9500      1.0000      0.9500      0.1000      0.0100           1
Sea_dep_thick   C                   800.0000      0.0000    167.5000    326.1500      1.0000      4.1229      0.9500      1.0000      0.9500      0.1000      0.9000           1
Sea_dep_thick   C                   800.0000      0.0000    167.5000    326.1500      1.0000      8.0857      0.9500      1.0000      0.9500      0.1000      0.9000           1
Sea_dep_thick   C                   800.0000      0.0000    167.5000    326.1500      1.0000      4.5887      0.9500      1.0000      0.9500      0.1000      0.9000           1
Sea_dep_thick   C                   800.0000      0.0000    167.5000    326.1500      1.0000      3.6604      0.9500      1.0000      0.9500      0.1000      0.9000           1
Sea_dep_thin    D                   150.0000      0.0000     37.5000     63.5745      1.0000      3.0036      0.9500      1.0000      0.9500      0.1000      0.9000           1
Mountain        D                   100.0000      0.0000     15.5000     53.7377      1.0000      1.7265      0.9500      1.0000      0.9500      0.1000      0.9000           1
STrt-sl         D                  1000.0000      0.0000    153.5000    202.5774      0.3000      0.8489      0.9500      1.0000      0.9500      0.1000      0.0100           1
STlv-sl         D                  1000.0000      0.0000    134.5000    185.8970      0.3000      0.5414      0.9500      1.0000      0.9500      0.1000      0.0100           1
[...]
STlv-sl         D                  1000.0000      0.0000    134.5000    185.8970      1.0000      1.3719      0.9500      1.0000      0.9500      0.1000      0.9000           1
Sea_dep_thin    D                   150.0000      0.0000     37.5000     63.5745      1.0000      0.4306      0.9500      1.0000      0.9500      0.1000      0.9000           1
Sea_dep_thick   C                   800.0000      0.0000    167.5000    326.1500      1.0000      8.3373      0.9500      1.0000      0.9500      0.1000      0.9000           1
Sea_dep_thick   C                   800.0000      0.0000    167.5000    326.1500      1.0000     10.6971      0.9500      1.0000      0.9500      0.1000      0.9000           1
Sea_dep_thin    D                   150.0000      0.0000     37.5000     63.5745      1.0000      2.0080      0.9500      1.0000      0.9500      0.1000      0.9000           1
Sea_dep_thick   C                   800.0000      0.0000    167.5000    326.1500      1.0000     10.2254      0.9500      1.0000      0.9500      0.1000      0.9000           1
STrt-sl         D                  1000.0000      0.0000    153.5000    202.5774      1.0000      5.1079      0.9500      1.0000      0.9500      0.1000      0.9000           1
Sea_dep_thin    D                   150.0000      0.0000     37.5000     63.5745      1.0000      3.6688      0.9500      1.0000      0.9500      0.1000      0.9000           1
Sea_dep_thin    D                   150.0000      0.0000     37.5000     63.5745      1.0000      1.5958      0.9500      1.0000      0.9500      0.1000      0.9000           1
PZha-ar         B                  1000.0000      0.0000    141.0000    407.9275      1.0000      0.8780      0.9500      1.0000      0.9500      0.1000      0.9000           1
Sea_dep_thin    D                   150.0000      0.0000     37.5000     63.5745      1.0000      1.3708      0.9500      1.0000      0.9500      0.1000      0.9000           1
STrt-sl         D                  1000.0000      0.0000    153.5000    202.5774      1.0000      0.6554      0.9500      1.0000      0.9500      0.1000      0.0100           1
STrt-sl         D                  1000.0000      0.0000    153.5000    202.5774      1.0000      1.0382      0.9500      1.0000      0.9500      0.1000      0.0100           1
STlv-sl         D                  1000.0000      0.0000    134.5000    185.8970      1.0000      1.0688      0.9500      1.0000      0.9500      0.1000      0.0100           1
STlv-sl         D                  1000.0000      0.0000    134.5000    185.8970      1.0000      1.1359      0.9500      1.0000      0.9500      0.1000      0.0100           1
STrt-sl         D                  1000.0000      0.0000    153.5000    202.5774      1.0000      0.4517      0.9500      1.0000      0.9500      0.1000      0.0100           1
CMeu-sl         D                  1000.0000      0.0000    107.0000    150.6253      0.7000      1.3242      0.9500      1.0000      0.9500      0.1000      0.0100           1
STrt-sl         D                  1000.0000      0.0000    153.5000    202.5774      0.5000      0.7963      0.9500      1.0000      0.9500      0.1000      0.0100           1
STeu-sl         D                  1000.0000      0.0000    121.0000    198.6441      0.5000      1.3460      0.9500      1.0000      0.9500      0.1000      0.0100           1
CMeu-sl         D                  1000.0000      0.0000    107.0000    150.6253      1.0000      2.4075      0.9500      1.0000      0.9500      0.1000      0.0100           1
STrt-sl         D                  1000.0000      0.0000    153.5000    202.5774      0.3000      0.9005      0.9500      1.0000      0.9500      0.1000      0.0100           1
LVcm-sl         C                  1000.0000      0.0000    123.0000    274.9583      1.0000      0.8685      0.9500      1.0000      0.9500      0.1000      0.0100           1
STlv-sl         D                  1000.0000      0.0000    134.5000    185.8970      1.0000      0.5055      0.9500      1.0000      0.9500      0.1000      0.9000           1
STlv-sl         D                  1000.0000      0.0000    134.5000    185.8970      1.0000      0.2880      0.9500      1.0000      0.9500      0.1000      0.2000           1
STlv            D                  1000.0000      0.0000    130.0000    231.4219      1.0000      0.4813      0.9500      1.0000      0.9500      0.1000      0.9000           1
Sea_dep_thick   C                   800.0000      0.0000    167.5000    326.1500      1.0000      0.4780      0.9500      1.0000      0.9500      0.1000      0.2000           1
STrt-sl         D                  1000.0000      0.0000    153.5000    202.5774      1.0000      0.8501      0.9500      1.0000      0.9500      0.1000      0.9000           1
Sea_dep_thick   C                   800.0000      0.0000    167.5000    326.1500      1.0000      0.8369      0.9500      1.0000      0.9500      0.1000      0.9000           1
STlv-sl         D                  1000.0000      0.0000    134.5000    185.8970      1.0000      3.2502      0.9500      1.0000      0.9500      0.1000      0.9000           1
LVcm-sl         C                  1000.0000      0.0000    123.0000    274.9583      1.0000      1.4906      0.9500      1.0000      0.9500      0.1000      0.9000           1
Sea_dep_thick   C                   800.0000      0.0000    167.5000    326.1500      1.0000      1.0216      0.9500      1.0000      0.9500      0.1000      0.9000           1
STlv-sl         D                  1000.0000      0.0000    134.5000    185.8970      1.0000      0.9924      0.9500      1.0000      0.9500      0.1000      0.9000           1
STlv-sl         D                  1000.0000      0.0000    134.5000    185.8970      1.0000      0.2749      0.9500      1.0000      0.9500      0.1000      0.2000           1
STlv            D                  1000.0000      0.0000    130.0000    231.4219      1.0000      0.6949      0.9500      1.0000      0.9500      0.1000      0.9000           1
Sea_dep_thick   C                   800.0000      0.0000    167.5000    326.1500      1.0000      0.8750      0.9500      1.0000      0.9500      0.1000      0.9000           1
STlv-sl         D                  1000.0000      0.0000    134.5000    185.8970      1.0000      0.4186      0.9500      1.0000      0.9500      0.1000      0.0100           1
STlv-sl         D                  1000.0000      0.0000    134.5000    185.8970      1.0000      1.0693      0.9500      1.0000      0.9500      0.1000      0.0100           1
STlv-sl         D                  1000.0000      0.0000    134.5000    185.8970      1.0000      0.2817      0.9500      1.0000      0.9500      0.1000      0.0100           1
STlv-sl         D                  1000.0000      0.0000    134.5000    185.8970      1.0000      0.3046      0.9500      1.0000      0.9500      0.1000      0.0100           1
LVcm-sl         C                  1000.0000      0.0000    123.0000    274.9583      0.5000      0.1174      0.9500      1.0000      0.9500      0.1000      0.0100           1
STlv-sl         D                  1000.0000      0.0000    134.5000    185.8970      1.0000      0.1362      0.9500      1.0000      0.9500      0.1000      0.0100           1
STlv-sl         D                  1000.0000      0.0000    134.5000    185.8970      1.0000      0.1787      0.9500      1.0000      0.9500      0.1000      0.0100           1
STlv-sl         D                  1000.0000      0.0000    134.5000    185.8970      1.0000      0.1022      0.9500      1.0000      0.9500      0.1000      0.0100           1
Sea_dep_thick   C                   800.0000      0.0000    167.5000    326.1500      1.0000      0.8792      0.9500      1.0000      0.9500      0.1000      0.9000           1
Beach_dep       C                   800.0000      0.0000    167.5000    326.1500      1.0000      0.6771      0.9500      1.0000      0.9500      0.1000      0.9000           1
STrt-sl         D                  1000.0000      0.0000    153.5000    202.5774      1.0000      0.6079      0.9500      1.0000      0.9500      0.1000      0.9000           1
Beach_dep       C                   800.0000      0.0000    167.5000    326.1500      1.0000      0.8778      0.9500      1.0000      0.9500      0.1000      0.9000           1
STrt-sl         D                  1000.0000      0.0000    153.5000    202.5774      1.0000      1.1627      0.9500      1.0000      0.9500      0.1000      0.9000           1
STrt-sl         D                  1000.0000      0.0000    153.5000    202.5774      1.0000      0.3336      0.9500      1.0000      0.9500      0.1000      0.0100           1
CMdy            C                  1000.0000      0.0000    130.7500    371.0863      1.0000      0.6910      0.9500      1.0000      0.9500      0.1000      0.0100           1
CMdy            C                  1000.0000      0.0000    130.7500    371.0863      1.0000      0.2731      0.9500      1.0000      0.9500      0.1000      0.0100           1
Beach_dep       C                   800.0000      0.0000    167.5000    326.1500      1.0000      0.7818      0.9500      1.0000      0.9500      0.1000      0.9000           1
Beach_dep       C                   800.0000      0.0000    167.5000    326.1500      1.0000      0.4743      0.9500      1.0000      0.9500      0.1000      0.2000           1
Sea_dep_thick   C                   800.0000      0.0000    167.5000    326.1500      1.0000      0.9396      0.9500      1.0000      0.9500      0.1000      0.9000           1
Beach_dep       C                   800.0000      0.0000    167.5000    326.1500      1.0000      1.3654      0.9500      1.0000      0.9500      0.1000      0.9000           1
Beach_dep       C                   800.0000      0.0000    167.5000    326.1500      1.0000      0.5739      0.9500      1.0000      0.9500      0.1000      0.0100           1
Beach_dep       C                   800.0000      0.0000    167.5000    326.1500      1.0000      0.7258      0.9500      1.0000      0.9500      0.1000      0.9000           1
Beach_dep       C                   800.0000      0.0000    167.5000    326.1500      1.0000      0.4668      0.9500      1.0000      0.9500      0.1000      0.2000           1
Beach_dep       C                   800.0000      0.0000    167.5000    326.1500      1.0000      1.1258      0.9500      1.0000      0.9500      0.1000      0.9000           1
STlv-sl         D                  1000.0000      0.0000    134.5000    185.8970      1.0000      0.1295      0.9500      1.0000      0.9500      0.1000      0.0100           1
STrt-sl         D                  1000.0000      0.0000    153.5000    202.5774      1.0000      0.3039      0.9500      1.0000      0.9500      0.1000      0.0100           1
Beach_dep       C                   800.0000      0.0000    167.5000    326.1500      1.0000      2.6639      0.9500      1.0000      0.9500      0.1000      0.9000           1
Sea_dep_thick   C                   800.0000      0.0000    167.5000    326.1500      1.0000      0.9811      0.9500      1.0000      0.9500      0.1000      0.9000           1
Beach_dep       C                   800.0000      0.0000    167.5000    326.1500      1.0000      0.5120      0.9500      1.0000      0.9500      0.1000      0.2000           1
Beach_dep       C                   800.0000      0.0000    167.5000    326.1500      1.0000      0.8190      0.9500      1.0000      0.9500      0.1000      0.9000           1
STrt-sl         D                  1000.0000      0.0000    153.5000    202.5774      1.0000      0.2949      0.9500      1.0000      0.9500      0.1000      0.0100           1
STrt-sl         D                  1000.0000      0.0000    153.5000    202.5774      1.0000      0.3420      0.9500      1.0000      0.9500      0.1000      0.0100           1
STlv-sl         D                  1000.0000      0.0000    134.5000    185.8970      1.0000      0.6360      0.9500      1.0000      0.9500      0.1000      0.0100           1
STlv            D                  1000.0000      0.0000    130.0000    231.4219      1.0000      0.5355      0.9500      1.0000      0.9500      0.1000      0.0100           1
STrt-sl         D                  1000.0000      0.0000    153.5000    202.5774      1.0000      0.4750      0.9500      1.0000      0.9500      0.1000      0.0100           1
STrt-sl         D                  1000.0000      0.0000    153.5000    202.5774      1.0000      0.8556      0.9500      1.0000      0.9500      0.1000      0.0100           1
STrt-sl         D                  1000.0000      0.0000    153.5000    202.5774      1.0000      0.3112      0.9500      1.0000      0.9500      0.1000      0.0100           1
Beach_dep       C                   800.0000      0.0000    167.5000    326.1500      1.0000      1.2051      0.9500      1.0000      0.9500      0.1000      0.9000           1
STlv-sl         D                  1000.0000      0.0000    134.5000    185.8970      1.0000      0.6318      0.9500      1.0000      0.9500      0.1000      0.9000           1
Beach_dep       C                   800.0000      0.0000    167.5000    326.1500      1.0000      0.5774      0.9500      1.0000      0.9500      0.1000      0.2000           1
Beach_dep       C                   800.0000      0.0000    167.5000    326.1500      1.0000      2.6881      0.9500      1.0000      0.9500      0.1000      0.9000           1
Beach_dep       C                   800.0000      0.0000    167.5000    326.1500      1.0000      0.6220      0.9500      1.0000      0.9500      0.1000      0.2000           1
Beach_dep       C                   800.0000      0.0000    167.5000    326.1500      1.0000      1.0619      0.9500      1.0000      0.9500      0.1000      0.9000           1
Sea_dep_thick   C                   800.0000      0.0000    167.5000    326.1500      1.0000      0.5068      0.9500      1.0000      0.9500      0.1000      0.2000           1
Beach_dep       C                   800.0000      0.0000    167.5000    326.1500      1.0000      0.5055      0.9500      1.0000      0.9500      0.1000      0.2000           1
Beach_dep       C                   800.0000      0.0000    167.5000    326.1500      1.0000      1.3365      0.9500      1.0000      0.9500      0.1000      0.9000           1
STrt-sl         D                  1000.0000      0.0000    153.5000    202.5774      1.0000      0.2540      0.9500      1.0000      0.9500      0.1000      0.0100           1
STlv-sl         D                  1000.0000      0.0000    134.5000    185.8970      1.0000      0.3906      0.9500      1.0000      0.9500      0.1000      0.0100           1
STlv            D                  1000.0000      0.0000    130.0000    231.4219      1.0000      0.4473      0.9500      1.0000      0.9500      0.1000      0.0100           1
STrt-sl         D                  1000.0000      0.0000    153.5000    202.5774      1.0000      0.5559      0.9500      1.0000      0.9500      0.1000      0.0100           1
STlv-sl         D                  1000.0000      0.0000    134.5000    185.8970      1.0000      0.6144      0.9500      1.0000      0.9500      0.1000      0.0100           1
STrt-sl         D                  1000.0000      0.0000    153.5000    202.5774      1.0000      0.4371      0.9500      1.0000      0.9500      0.1000      0.0100           1
STlv-sl         D                  1000.0000      0.0000    134.5000    185.8970      1.0000      0.5289      0.9500      1.0000      0.9500      0.1000      0.0100           1
Beach_dep       C                   800.0000      0.0000    167.5000    326.1500      1.0000      0.3848      0.9500      1.0000      0.9500      0.1000      0.0100           1
STlv            D                  1000.0000      0.0000    130.0000    231.4219      1.0000      0.2521      0.9500      1.0000      0.9500      0.1000      0.0100           1
STrt-sl         D                  1000.0000      0.0000    153.5000    202.5774      1.0000      0.2229      0.9500      1.0000      0.9500      0.1000      0.0100           1
STlv            D                  1000.0000      0.0000    130.0000    231.4219      1.0000      0.8758      0.9500      1.0000      0.9500      0.1000      0.9000           1
Beach_dep       C                   800.0000      0.0000    167.5000    326.1500      1.0000      1.2370      0.9500      1.0000      0.9500      0.1000      0.9000           1
Beach_dep       C                   800.0000      0.0000    167.5000    326.1500      1.0000      1.5120      0.9500      1.0000      0.9500      0.1000      0.9000           1
STrt            C                  1000.0000      0.0000    142.0000    212.6528      0.3000      0.3262      0.9500      1.0000      0.9500      0.1000      0.0100           1
STrt-sl         D                  1000.0000      0.0000    153.5000    202.5774      0.7000      0.2969      0.9500      1.0000      0.9500      0.1000      0.0100           1
STlv-sl         D                  1000.0000      0.0000    134.5000    185.8970      1.0000      0.4156      0.9500      1.0000      0.9500      0.1000      0.0100           1
STrt            C                  1000.0000      0.0000    142.0000    212.6528      1.0000      0.5854      0.9500      1.0000      0.9500      0.1000      0.0100           1
STrt            C                  1000.0000      0.0000    142.0000    212.6528      1.0000      0.5203      0.9500      1.0000      0.9500      0.1000      0.2000           1
Beach_dep       C                   800.0000      0.0000    167.5000    326.1500      1.0000      0.7325      0.9500      1.0000      0.9500      0.1000      0.9000           1
STrt-sl         D                  1000.0000      0.0000    153.5000    202.5774      0.7000      0.2310      0.9500      1.0000      0.9500      0.1000      0.0100           1
STlv-sl         D                  1000.0000      0.0000    134.5000    185.8970      1.0000      0.2286      0.9500      1.0000      0.9500      0.1000      0.0100           1
STlv            D                  1000.0000      0.0000    130.0000    231.4219      1.0000      0.8966      0.9500      1.0000      0.9500      0.1000      0.0100           1
STrt            C                  1000.0000      0.0000    142.0000    212.6528      1.0000      0.3170      0.9500      1.0000      0.9500      0.1000      0.0100           1
Beach_dep       C                   800.0000      0.0000    167.5000    326.1500      1.0000      1.2547      0.9500      1.0000      0.9500      0.1000      0.9000           1
Sea_dep_thick   C                   800.0000      0.0000    167.5000    326.1500      1.0000      2.9537      0.9500      1.0000      0.9500      0.1000      0.9000           1
Beach_dep       C                   800.0000      0.0000    167.5000    326.1500      1.0000      1.6635      0.9500      1.0000      0.9500      0.1000      0.9000           1
Beach_dep       C                   800.0000      0.0000    167.5000    326.1500      1.0000      1.7576      0.9500      1.0000      0.9500      0.1000      0.9000           1
STlv-sl         D                  1000.0000      0.0000    134.5000    185.8970      1.0000      0.4347      0.9500      1.0000      0.9500      0.1000      0.0100           1
STlv-sl         D                  1000.0000      0.0000    134.5000    185.8970      1.0000      0.3727      0.9500      1.0000      0.9500      0.1000      0.0100           1
Beach_dep       C                   800.0000      0.0000    167.5000    326.1500      1.0000      1.2510      0.9500      1.0000      0.9500      0.1000      0.9000           1
STlv-sl         D                  1000.0000      0.0000    134.5000    185.8970      1.0000      0.3482      0.9500      1.0000      0.9500      0.1000      0.0100           1
