                   SWAT+               
             Revision 60.5.6          
      Soil & Water Assessment Tool    
               PC Version             
    Program reading . . . executing


  Date of Sim   6/ 2/2023 Time  17:10:59
 reading from precipitation file         Time  17:10:59
 reading from temperature file           Time  17:10:59
 reading from solar radiation file       Time  17:10:59
 reading from relative humidity file     Time  17:11: 0
 reading from wind file                  Time  17:11: 0
 reading from wgn file                   Time  17:11: 0
 reading from wx station file            Time  17:11: 0
  Original Simulation        1   1  2011 Yr    1 of   10 Time  17:11: 6
